CHEMBL2347999
  Mrv1825 10101900363D          

 33 37  0  0  0  0            999 V2000
   -6.3108    1.7031    1.7811 C   0  0  0  0  0  0  0  0  0  0  0  0
   -4.9587    1.5083    1.2661 N   0  3  1  0  0  0  0  0  0  0  0  0
   -4.1429    2.7107    1.4018 C   0  0  0  0  0  0  0  0  0  0  0  0
   -2.8352    2.5418    0.6241 C   0  0  0  0  0  0  0  0  0  0  0  0
   -2.1081    1.2265    0.9517 C   0  0  1  0  0  0  0  0  0  0  0  0
   -2.8199    0.4275    2.0494 C   0  0  0  0  0  0  0  0  0  0  0  0
   -4.3313    0.3114    1.8397 C   0  0  0  0  0  0  0  0  0  0  0  0
   -1.7716    0.3749   -0.2502 C   0  0  0  0  0  0  0  0  0  0  0  0
   -0.5302   -0.1118   -0.3356 N   0  0  0  0  0  0  0  0  0  0  0  0
   -0.5239   -0.9119   -1.4378 N   0  0  0  0  0  0  0  0  0  0  0  0
    0.6273   -1.7302   -1.6758 C   0  0  0  0  0  0  0  0  0  0  0  0
    0.5481   -2.8483   -2.5047 C   0  0  0  0  0  0  0  0  0  0  0  0
    1.5883   -3.6806   -2.7940 N   0  0  0  0  0  0  0  0  0  0  0  0
    2.7068   -3.2973   -2.1491 C   0  0  0  0  0  0  0  0  0  0  0  0
    3.9261   -3.9096   -2.2119 N   0  0  0  0  0  0  0  0  0  0  0  0
    4.8178   -3.2398   -1.4096 C   0  0  0  0  0  0  0  0  0  0  0  0
    4.1618   -2.1700   -0.8126 C   0  0  0  0  0  0  0  0  0  0  0  0
    4.7624   -1.2195    0.1128 C   0  0  0  0  0  0  0  0  0  0  0  0
    5.9411   -1.2917    0.4467 O   0  0  0  0  0  0  0  0  0  0  0  0
    3.9077   -0.2424    0.5666 N   0  0  0  0  0  0  0  0  0  0  0  0
    4.2085    0.7741    1.5910 C   0  0  1  0  0  0  0  0  0  0  0  0
    2.9997    1.7313    1.6463 C   0  0  0  0  0  0  0  0  0  0  0  0
    4.3641    0.1018    2.9640 C   0  0  0  0  0  0  0  0  0  0  0  0
    5.4648    1.6189    1.2312 C   0  0  0  0  0  0  0  0  0  0  0  0
    6.6963    0.9700    1.5295 O   0  0  0  0  0  0  0  0  0  0  0  0
    2.8258   -2.2137   -1.2904 C   0  0  0  0  0  0  0  0  0  0  0  0
    1.7759   -1.3959   -1.0203 N   0  0  0  0  0  0  0  0  0  0  0  0
   -1.7052   -0.7894   -2.1670 C   0  0  0  0  0  0  0  0  0  0  0  0
   -2.1094   -1.2367   -3.4419 C   0  0  0  0  0  0  0  0  0  0  0  0
   -3.4156   -0.9703   -3.8625 C   0  0  0  0  0  0  0  0  0  0  0  0
   -4.2928   -0.2619   -3.0541 C   0  0  0  0  0  0  0  0  0  0  0  0
   -3.8721    0.2287   -1.8148 C   0  0  0  0  0  0  0  0  0  0  0  0
   -2.5563   -0.0151   -1.3699 C   0  0  0  0  0  0  0  0  0  0  0  0
  1  2  1  0  0  0  0
  2  3  1  0  0  0  0
  3  4  1  0  0  0  0
  4  5  1  0  0  0  0
  5  6  1  0  0  0  0
  6  7  1  0  0  0  0
  5  8  1  0  0  0  0
  8  9  2  0  0  0  0
  9 10  1  0  0  0  0
 10 11  1  0  0  0  0
 11 12  2  0  0  0  0
 12 13  1  0  0  0  0
 13 14  2  0  0  0  0
 14 15  1  0  0  0  0
 15 16  1  0  0  0  0
 16 17  2  0  0  0  0
 17 18  1  0  0  0  0
 18 19  2  0  0  0  0
 18 20  1  0  0  0  0
 20 21  1  0  0  0  0
 21 22  1  0  0  0  0
 21 23  1  0  0  0  0
 21 24  1  0  0  0  0
 24 25  1  0  0  0  0
 17 26  1  0  0  0  0
 26 27  2  0  0  0  0
 10 28  1  0  0  0  0
 28 29  2  0  0  0  0
 29 30  1  0  0  0  0
 30 31  2  0  0  0  0
 31 32  1  0  0  0  0
 32 33  2  0  0  0  0
  7  2  1  0  0  0  0
 33  8  1  0  0  0  0
 27 11  1  0  0  0  0
 26 14  1  0  0  0  0
 33 28  1  0  0  0  0
M  CHG  1   2   1
M  END
>  <_MOLCOUNT>
1

$$$$
CHEMBL1615184
  Mrv1825 10101900283D          

 38 41  0  0  0  0            999 V2000
   -7.1394    1.0948    3.0093 C   0  0  0  0  0  0  0  0  0  0  0  0
   -8.4498    1.0997    2.2370 C   0  0  0  0  0  0  0  0  0  0  0  0
   -8.2591    0.9643    0.7249 C   0  0  0  0  0  0  0  0  0  0  0  0
   -7.6632   -0.2931    0.3095 N   0  0  0  0  0  0  0  0  0  0  0  0
   -6.5253   -0.3688   -0.5744 C   0  0  1  0  0  0  0  0  0  0  0  0
   -5.2064   -0.1032    0.1702 C   0  0  0  0  0  0  0  0  0  0  0  0
   -3.9942   -0.0959   -0.7307 C   0  0  0  0  0  0  0  0  0  0  0  0
   -3.0518   -1.1324   -0.6247 C   0  0  0  0  0  0  0  0  0  0  0  0
   -1.9154   -1.1713   -1.4453 C   0  0  0  0  0  0  0  0  0  0  0  0
   -0.8943   -2.2712   -1.3027 C   0  0  0  0  0  0  0  0  0  0  0  0
    0.2265   -2.0538   -0.2570 C   0  0  2  0  0  0  0  0  0  0  0  0
   -0.2393   -2.1903    1.1951 C   0  0  0  0  0  0  0  0  0  0  0  0
   -0.2469   -0.6846    2.1426 S   0  0  1  0  0  0  0  0  0  0  0  0
   -1.2735    0.1853    1.6069 O   0  0  0  0  0  0  0  0  0  0  0  0
   -0.2711   -1.0674    3.5420 O   0  0  0  0  0  0  0  0  0  0  0  0
    1.3335    0.0756    1.8210 C   0  0  0  0  0  0  0  0  0  0  0  0
    2.0774   -0.5559    0.6458 C   0  0  2  0  0  0  0  0  0  0  0  0
    3.2123    0.2717    0.1724 N   0  3  0  0  0  0  0  0  0  0  0  0
    4.2267    0.5104    1.2051 C   0  0  0  0  0  0  0  0  0  0  0  0
    5.4633    1.1304    0.5991 C   0  0  0  0  0  0  0  0  0  0  0  0
    5.4463    2.4610    0.1617 C   0  0  0  0  0  0  0  0  0  0  0  0
    6.5824    3.0298   -0.4101 C   0  0  0  0  0  0  0  0  0  0  0  0
    7.7470    2.2749   -0.5535 C   0  0  0  0  0  0  0  0  0  0  0  0
    7.7912    0.9388   -0.1297 C   0  0  0  0  0  0  0  0  0  0  0  0
    6.6386    0.3776    0.4438 C   0  0  0  0  0  0  0  0  0  0  0  0
    9.0444    0.0944   -0.2831 C   0  0  1  0  0  0  0  0  0  0  0  0
    9.4199   -0.0870   -1.7559 C   0  0  0  0  0  0  0  0  0  0  0  0
   10.2177    0.6725    0.5122 C   0  0  0  0  0  0  0  0  0  0  0  0
    1.0946   -0.8113   -0.5284 C   0  0  1  0  0  0  0  0  0  0  0  0
    1.8250   -1.0448   -1.7372 O   0  0  0  0  0  0  0  0  0  0  0  0
   -1.7487   -0.1763   -2.4164 C   0  0  0  0  0  0  0  0  0  0  0  0
   -2.6778    0.8550   -2.5384 C   0  0  0  0  0  0  0  0  0  0  0  0
   -3.7735    0.9015   -1.6845 C   0  0  0  0  0  0  0  0  0  0  0  0
   -4.6162    1.9669   -1.8177 O   0  0  0  0  0  0  0  0  0  0  0  0
   -6.6328   -1.7915   -1.1031 C   0  0  0  0  0  0  0  0  0  0  0  0
   -7.5610   -2.4604   -0.2401 O   0  0  0  0  0  0  0  0  0  0  0  0
   -8.2617   -1.5194    0.4568 C   0  0  0  0  0  0  0  0  0  0  0  0
   -9.2672   -1.7697    1.0999 O   0  0  0  0  0  0  0  0  0  0  0  0
  1  2  1  0  0  0  0
  2  3  1  0  0  0  0
  3  4  1  0  0  0  0
  4  5  1  0  0  0  0
  5  6  1  0  0  0  0
  6  7  1  0  0  0  0
  7  8  2  0  0  0  0
  8  9  1  0  0  0  0
  9 10  1  0  0  0  0
 10 11  1  0  0  0  0
 11 12  1  0  0  0  0
 12 13  1  0  0  0  0
 13 14  2  0  0  0  0
 13 15  2  0  0  0  0
 13 16  1  0  0  0  0
 16 17  1  0  0  0  0
 17 18  1  0  0  0  0
 18 19  1  0  0  0  0
 19 20  1  0  0  0  0
 20 21  2  0  0  0  0
 21 22  1  0  0  0  0
 22 23  2  0  0  0  0
 23 24  1  0  0  0  0
 24 25  2  0  0  0  0
 24 26  1  0  0  0  0
 26 27  1  0  0  0  0
 26 28  1  0  0  0  0
 17 29  1  0  0  0  0
 29 30  1  0  0  0  0
  9 31  2  0  0  0  0
 31 32  1  0  0  0  0
 32 33  2  0  0  0  0
 33 34  1  0  0  0  0
  5 35  1  0  0  0  0
 35 36  1  0  0  0  0
 36 37  1  0  0  0  0
 37 38  2  0  0  0  0
 37  4  1  0  0  0  0
 33  7  1  0  0  0  0
 29 11  1  0  0  0  0
 25 20  1  0  0  0  0
M  CHG  1  18   1
M  END
>  <_MOLCOUNT>
1

$$$$
CHEMBL3797313
  Mrv1825 10101900433D          

 26 28  0  0  0  0            999 V2000
    2.3404   -1.7545   -2.0928 C   0  0  0  0  0  0  0  0  0  0  0  0
    3.4988   -1.1815   -1.2899 C   0  0  0  0  0  0  0  0  0  0  0  0
    3.0415   -0.1677   -0.3124 N   0  0  1  0  0  0  0  0  0  0  0  0
    2.3107   -0.7034    0.8607 C   0  0  0  0  0  0  0  0  0  0  0  0
    0.8071   -0.6721    0.6197 C   0  0  0  0  0  0  0  0  0  0  0  0
    0.2193    0.3601   -0.0051 C   0  0  0  0  0  0  0  0  0  0  0  0
   -1.2375    0.3499   -0.2411 C   0  0  0  0  0  0  0  0  0  0  0  0
   -1.7386    1.3122   -0.8169 O   0  0  0  0  0  0  0  0  0  0  0  0
   -1.8929   -0.7712    0.2235 N   0  0  0  0  0  0  0  0  0  0  0  0
   -3.2633   -1.0402    0.1377 C   0  0  0  0  0  0  0  0  0  0  0  0
   -3.6091   -2.2225    0.6895 C   0  0  0  0  0  0  0  0  0  0  0  0
   -4.9598   -2.8447    0.8162 C   0  0  0  0  0  0  0  0  0  0  0  0
   -2.2206   -3.0574    1.3477 S   0  0  0  0  0  0  0  0  0  0  0  0
   -1.1628   -1.7558    0.8545 C   0  0  0  0  0  0  0  0  0  0  0  0
    0.1074   -1.7681    1.0736 N   0  0  0  0  0  0  0  0  0  0  0  0
   -4.2170   -0.0869   -0.5328 C   0  0  0  0  0  0  0  0  0  0  0  0
   -4.6757    1.0228    0.4128 C   0  0  0  0  0  0  0  0  0  0  0  0
   -5.5068    2.0667   -0.3181 C   0  0  0  0  0  0  0  0  0  0  0  0
   -5.9923    3.0100    0.6277 O   0  0  0  0  0  0  0  0  0  0  0  0
    4.1335    0.6563    0.0554 C   0  0  0  0  0  0  0  0  0  0  0  0
    4.2583    1.9057   -0.5712 C   0  0  0  0  0  0  0  0  0  0  0  0
    5.3216    2.7558   -0.2632 C   0  0  0  0  0  0  0  0  0  0  0  0
    6.2688    2.3529    0.6688 C   0  0  0  0  0  0  0  0  0  0  0  0
    7.2914    3.1656    0.9650 F   0  0  0  0  0  0  0  0  0  0  0  0
    6.1743    1.1162    1.2952 C   0  0  0  0  0  0  0  0  0  0  0  0
    5.1096    0.2666    0.9865 C   0  0  0  0  0  0  0  0  0  0  0  0
  1  2  1  0  0  0  0
  2  3  1  0  0  0  0
  3  4  1  0  0  0  0
  4  5  1  0  0  0  0
  5  6  2  0  0  0  0
  6  7  1  0  0  0  0
  7  8  2  0  0  0  0
  7  9  1  0  0  0  0
  9 10  1  0  0  0  0
 10 11  2  0  0  0  0
 11 12  1  0  0  0  0
 11 13  1  0  0  0  0
 13 14  1  0  0  0  0
 14 15  2  0  0  0  0
 10 16  1  0  0  0  0
 16 17  1  0  0  0  0
 17 18  1  0  0  0  0
 18 19  1  0  0  0  0
  3 20  1  0  0  0  0
 20 21  2  0  0  0  0
 21 22  1  0  0  0  0
 22 23  2  0  0  0  0
 23 24  1  0  0  0  0
 23 25  1  0  0  0  0
 25 26  2  0  0  0  0
 15  5  1  0  0  0  0
 14  9  1  0  0  0  0
 26 20  1  0  0  0  0
M  END
>  <_MOLCOUNT>
1

$$$$
