CHEMBL1939221
  Mrv1825 10101900313D          

 25 26  0  0  0  0            999 V2000
    1.0233   -1.5456   -1.9287 C   0  0  0  0  0  0  0  0  0  0  0  0
    0.9884   -0.9278   -0.5306 C   0  0  2  0  0  0  0  0  0  0  0  0
    0.1074    0.2017   -0.5273 O   0  0  0  0  0  0  0  0  0  0  0  0
   -1.2220    0.0290   -0.2713 C   0  0  0  0  0  0  0  0  0  0  0  0
   -1.9437    1.2217   -0.1690 C   0  0  0  0  0  0  0  0  0  0  0  0
   -3.3229    1.2208    0.0886 C   0  0  0  0  0  0  0  0  0  0  0  0
   -3.9765   -0.0087    0.2537 C   0  0  0  0  0  0  0  0  0  0  0  0
   -3.2721   -1.2178    0.1385 C   0  0  0  0  0  0  0  0  0  0  0  0
   -1.8891   -1.1850   -0.1194 C   0  0  0  0  0  0  0  0  0  0  0  0
   -3.9779   -2.5406    0.3267 C   0  0  2  0  0  0  0  0  0  0  0  0
   -3.9216   -2.9737    1.6152 F   0  0  0  0  0  0  0  0  0  0  0  0
   -3.4424   -3.5389   -0.4292 F   0  0  0  0  0  0  0  0  0  0  0  0
   -5.2987   -2.4931    0.0012 F   0  0  0  0  0  0  0  0  0  0  0  0
   -4.0732    2.5237    0.2250 C   0  0  1  0  0  0  0  0  0  0  0  0
   -5.3935    2.4130   -0.0895 F   0  0  0  0  0  0  0  0  0  0  0  0
   -4.0290    3.0118    1.4944 F   0  0  0  0  0  0  0  0  0  0  0  0
   -3.5808    3.5091   -0.5751 F   0  0  0  0  0  0  0  0  0  0  0  0
    2.3878   -0.4356   -0.0810 C   0  0  1  0  0  0  0  0  0  0  0  0
    2.9428    0.6927   -0.9609 C   0  0  0  0  0  0  0  0  0  0  0  0
    4.3216    1.0966   -0.4883 C   0  0  0  0  0  0  0  0  0  0  0  0
    5.2315    1.2989   -1.2922 O   0  0  0  0  0  0  0  0  0  0  0  0
    4.4997    1.3722    0.9792 C   0  0  0  0  0  0  0  0  0  0  0  0
    3.7081    0.4388    1.8521 C   0  0  0  0  0  0  0  0  0  0  0  0
    4.1166    0.0938    2.9604 O   0  0  0  0  0  0  0  0  0  0  0  0
    2.3291    0.0480    1.3756 C   0  0  0  0  0  0  0  0  0  0  0  0
  1  2  1  0  0  0  0
  2  3  1  0  0  0  0
  3  4  1  0  0  0  0
  4  5  2  0  0  0  0
  5  6  1  0  0  0  0
  6  7  2  0  0  0  0
  7  8  1  0  0  0  0
  8  9  2  0  0  0  0
  8 10  1  0  0  0  0
 10 11  1  0  0  0  0
 10 12  1  0  0  0  0
 10 13  1  0  0  0  0
  6 14  1  0  0  0  0
 14 15  1  0  0  0  0
 14 16  1  0  0  0  0
 14 17  1  0  0  0  0
  2 18  1  0  0  0  0
 18 19  1  0  0  0  0
 19 20  1  0  0  0  0
 20 21  2  0  0  0  0
 20 22  1  0  0  0  0
 22 23  1  0  0  0  0
 23 24  2  0  0  0  0
 23 25  1  0  0  0  0
  9  4  1  0  0  0  0
 25 18  1  0  0  0  0
M  END
>  <_MOLCOUNT>
1

$$$$
