CHEMBL2010836
  Mrv1825 10101900323D          

 33 36  0  0  0  0            999 V2000
    1.0807    2.8406    0.5536 C   0  0  0  0  0  0  0  0  0  0  0  0
    1.1115    1.4758    0.0370 N   0  0  0  0  0  0  0  0  0  0  0  0
   -0.1601    0.8540   -0.4037 C   0  0  2  0  0  0  0  0  0  0  0  0
   -1.0611    1.7779   -1.2423 C   0  0  0  0  0  0  0  0  0  0  0  0
   -2.3568    2.1301   -0.5149 C   0  0  0  0  0  0  0  0  0  0  0  0
   -3.1235    0.9243   -0.1981 N   0  3  2  0  0  0  0  0  0  0  0  0
   -4.3384    1.2459    0.5640 C   0  0  0  0  0  0  0  0  0  0  0  0
   -5.3705    0.1363    0.5350 C   0  0  0  0  0  0  0  0  0  0  0  0
   -5.9029   -0.3757    1.7256 C   0  0  0  0  0  0  0  0  0  0  0  0
   -6.8664   -1.3875    1.6946 C   0  0  0  0  0  0  0  0  0  0  0  0
   -7.3158   -1.9089    0.4723 C   0  0  0  0  0  0  0  0  0  0  0  0
   -6.7934   -1.3855   -0.7192 C   0  0  0  0  0  0  0  0  0  0  0  0
   -5.8316   -0.3740   -0.6873 C   0  0  0  0  0  0  0  0  0  0  0  0
   -8.3649   -2.9910    0.4306 C   0  0  2  0  0  0  0  0  0  0  0  0
   -9.6115   -2.4960    0.1971 F   0  0  0  0  0  0  0  0  0  0  0  0
   -8.4565   -3.6998    1.5916 F   0  0  0  0  0  0  0  0  0  0  0  0
   -8.1395   -3.9126   -0.5473 F   0  0  0  0  0  0  0  0  0  0  0  0
   -2.3295   -0.1540    0.4105 C   0  0  0  0  0  0  0  0  0  0  0  0
   -0.9075    0.2503    0.7933 C   0  0  0  0  0  0  0  0  0  0  0  0
    2.2530    0.6644    0.0872 C   0  0  0  0  0  0  0  0  0  0  0  0
    2.1950   -0.5467   -0.1330 O   0  0  0  0  0  0  0  0  0  0  0  0
    3.5724    1.3547    0.4269 C   0  0  0  0  0  0  0  0  0  0  0  0
    4.8023    0.5540    0.0596 C   0  0  0  0  0  0  0  0  0  0  0  0
    5.3116    0.5982   -1.2446 C   0  0  0  0  0  0  0  0  0  0  0  0
    6.4423   -0.1463   -1.5904 C   0  0  0  0  0  0  0  0  0  0  0  0
    7.0755   -0.9536   -0.6339 C   0  0  0  0  0  0  0  0  0  0  0  0
    6.5640   -1.0106    0.6691 C   0  0  0  0  0  0  0  0  0  0  0  0
    5.4330   -0.2612    1.0090 C   0  0  0  0  0  0  0  0  0  0  0  0
    8.2200   -1.7012   -1.0002 N   0  0  0  0  0  0  0  0  0  0  0  0
    8.9823   -2.5587   -0.2470 C   0  0  0  0  0  0  0  0  0  0  0  0
    9.9664   -3.0283   -0.9796 N   0  0  0  0  0  0  0  0  0  0  0  0
    9.8152   -2.4557   -2.2135 N   0  0  0  0  0  0  0  0  0  0  0  0
    8.7607   -1.6517   -2.2406 N   0  0  0  0  0  0  0  0  0  0  0  0
  1  2  1  0  0  0  0
  2  3  1  0  0  0  0
  3  4  1  0  0  0  0
  4  5  1  0  0  0  0
  5  6  1  0  0  0  0
  6  7  1  0  0  0  0
  7  8  1  0  0  0  0
  8  9  2  0  0  0  0
  9 10  1  0  0  0  0
 10 11  2  0  0  0  0
 11 12  1  0  0  0  0
 12 13  2  0  0  0  0
 11 14  1  0  0  0  0
 14 15  1  0  0  0  0
 14 16  1  0  0  0  0
 14 17  1  0  0  0  0
  6 18  1  0  0  0  0
 18 19  1  0  0  0  0
  2 20  1  0  0  0  0
 20 21  2  0  0  0  0
 20 22  1  0  0  0  0
 22 23  1  0  0  0  0
 23 24  2  0  0  0  0
 24 25  1  0  0  0  0
 25 26  2  0  0  0  0
 26 27  1  0  0  0  0
 27 28  2  0  0  0  0
 26 29  1  0  0  0  0
 29 30  1  0  0  0  0
 30 31  2  0  0  0  0
 31 32  1  0  0  0  0
 32 33  2  0  0  0  0
 19  3  1  0  0  0  0
 13  8  1  0  0  0  0
 28 23  1  0  0  0  0
 33 29  1  0  0  0  0
M  CHG  1   6   1
M  END
>  <_MOLCOUNT>
1

$$$$
