CHEMBL1077779
  Mrv1825 10101900273D          

 39 43  0  0  0  0            999 V2000
    5.2681    2.1724   -3.3344 C   0  0  0  0  0  0  0  0  0  0  0  0
    3.7521    2.0948   -3.2339 C   0  0  0  0  0  0  0  0  0  0  0  0
    3.2483    0.8355   -2.5232 C   0  0  0  0  0  0  0  0  0  0  0  0
    3.6633    0.7714   -1.0490 C   0  0  0  0  0  0  0  0  0  0  0  0
    3.0369   -0.4238   -0.2965 C   0  0  1  0  0  0  0  0  0  0  0  0
    3.8584   -0.7660    0.8525 N   0  0  0  0  0  0  0  0  0  0  0  0
    4.9064   -1.7752    0.8475 C   0  0  0  0  0  0  0  0  0  0  0  0
    6.2186   -1.3408    0.1802 C   0  0  1  0  0  0  0  0  0  0  0  0
    6.8626   -0.1507    0.9107 C   0  0  0  0  0  0  0  0  0  0  0  0
    8.1949    0.2443    0.2761 C   0  0  0  0  0  0  0  0  0  0  0  0
    9.1599   -0.9354    0.2099 C   0  0  0  0  0  0  0  0  0  0  0  0
    8.5336   -2.1330   -0.4963 C   0  0  0  0  0  0  0  0  0  0  0  0
    7.1981   -2.5257    0.1318 C   0  0  0  0  0  0  0  0  0  0  0  0
    3.3426   -0.2092    1.9985 C   0  0  0  0  0  0  0  0  0  0  0  0
    3.8234   -0.2494    3.1177 O   0  0  0  0  0  0  0  0  0  0  0  0
    2.1481    0.3895    1.7045 O   0  0  0  0  0  0  0  0  0  0  0  0
    1.7009   -0.1181    0.4220 C   0  0  2  0  0  0  0  0  0  0  0  0
    0.8941   -1.4092    0.6606 C   0  0  0  0  0  0  0  0  0  0  0  0
   -0.4115   -1.1458    1.4181 C   0  0  0  0  0  0  0  0  0  0  0  0
   -1.2539   -0.1633    0.7131 N   0  3  2  0  0  0  0  0  0  0  0  0
   -0.5114    1.1044    0.5779 C   0  0  0  0  0  0  0  0  0  0  0  0
    0.7797    0.9148   -0.2247 C   0  0  0  0  0  0  0  0  0  0  0  0
   -2.6464   -0.0085    1.2719 C   0  0  1  0  0  0  0  0  0  0  0  0
   -2.6385    0.7075    2.6446 C   0  0  0  0  0  0  0  0  0  0  0  0
   -3.4989    0.8007    0.2512 C   0  0  0  0  0  0  0  0  0  0  0  0
   -4.9906    0.8419    0.5740 C   0  0  0  0  0  0  0  0  0  0  0  0
   -5.5529   -0.4860    0.7919 N   0  0  1  0  0  0  0  0  0  0  0  0
   -4.8282   -1.3354    1.7218 C   0  0  0  0  0  0  0  0  0  0  0  0
   -3.3338   -1.3981    1.4155 C   0  0  0  0  0  0  0  0  0  0  0  0
   -6.9090   -0.7738    0.5986 C   0  0  0  0  0  0  0  0  0  0  0  0
   -7.4820   -1.7477    1.0807 O   0  0  0  0  0  0  0  0  0  0  0  0
   -7.7039    0.1399   -0.2555 C   0  0  0  0  0  0  0  0  0  0  0  0
   -7.6093    0.0319   -1.6591 C   0  0  0  0  0  0  0  0  0  0  0  0
   -6.7205   -0.9885   -2.3148 C   0  0  0  0  0  0  0  0  0  0  0  0
   -8.3566    0.9134   -2.4516 C   0  0  0  0  0  0  0  0  0  0  0  0
   -9.1937    1.8609   -1.8611 C   0  0  0  0  0  0  0  0  0  0  0  0
   -9.2995    1.9417   -0.4712 C   0  0  0  0  0  0  0  0  0  0  0  0
   -8.5576    1.0832    0.3512 C   0  0  0  0  0  0  0  0  0  0  0  0
   -8.6997    1.1727    1.8449 C   0  0  0  0  0  0  0  0  0  0  0  0
  1  2  1  0  0  0  0
  2  3  1  0  0  0  0
  3  4  1  0  0  0  0
  4  5  1  0  0  0  0
  5  6  1  0  0  0  0
  6  7  1  0  0  0  0
  7  8  1  0  0  0  0
  8  9  1  0  0  0  0
  9 10  1  0  0  0  0
 10 11  1  0  0  0  0
 11 12  1  0  0  0  0
 12 13  1  0  0  0  0
  6 14  1  0  0  0  0
 14 15  2  0  0  0  0
 14 16  1  0  0  0  0
 16 17  1  0  0  0  0
 17 18  1  0  0  0  0
 18 19  1  0  0  0  0
 19 20  1  0  0  0  0
 20 21  1  0  0  0  0
 21 22  1  0  0  0  0
 20 23  1  0  0  0  0
 23 24  1  0  0  0  0
 23 25  1  0  0  0  0
 25 26  1  0  0  0  0
 26 27  1  0  0  0  0
 27 28  1  0  0  0  0
 28 29  1  0  0  0  0
 27 30  1  0  0  0  0
 30 31  2  0  0  0  0
 30 32  1  0  0  0  0
 32 33  2  0  0  0  0
 33 34  1  0  0  0  0
 33 35  1  0  0  0  0
 35 36  2  0  0  0  0
 36 37  1  0  0  0  0
 37 38  2  0  0  0  0
 38 39  1  0  0  0  0
 17  5  1  0  0  0  0
 13  8  1  0  0  0  0
 22 17  1  0  0  0  0
 29 23  1  0  0  0  0
 38 32  1  0  0  0  0
M  CHG  1  20   1
M  END
>  <_MOLCOUNT>
1

$$$$
